%nprocshared=15
%mem=4GB
# B3LYP/6-31G** made up

ts_conf_2

0 1
Cl  -1.67920000   0.64020000  -0.00010000
 F   1.54020000  -1.18360000  -0.01690000
 C  -0.10540000  -0.33480000  -0.00530000
 C   0.29910000   0.18840000  -1.46140000
 C  -0.69930000  -1.76790000  -0.03600000
 C   0.25860000   0.12830000   1.48270000
 O   1.81170000   1.46420000   0.05790000
 H   1.35290000   0.13220000  -1.77670000
 H   0.01940000   1.23190000  -1.57830000
 H  -0.29840000  -0.40990000  -2.14730000
 H  -1.73470000  -1.77560000  -0.36700000
 H  -0.12940000  -2.40360000  -0.70850000
 H  -0.65210000  -2.20560000   0.95780000
 H   0.97920000  -0.57290000   1.89880000
 H  -0.64140000   0.05570000   2.09020000
 H   0.68060000   1.14880000   1.59200000
 H   2.25370000   0.61700000   0.16490000
 H   2.38910000   2.01250000  -0.48480000

