%nprocshared=15
%mem=4GB
# B3LYP/6-31G** made up

ts_conf_1

0 1
Cl  -1.67580000   0.62390000  -0.00670000
 F   1.55980000  -1.17150000  -0.02780000
 C  -0.09340000  -0.34080000  -0.00530000
 C   0.30960000   0.18550000  -1.46390000
 C  -0.74470000  -1.74590000  -0.01620000
 C   0.26470000   0.11740000   1.48300000
 O   1.80610000   1.47790000   0.06710000
 H   1.36460000   0.15330000  -1.77580000
 H   0.00730000   1.22210000  -1.58540000
 H  -0.26630000  -0.42870000  -2.15340000
 H  -1.43760000  -1.83580000  -0.85040000
 H  -0.01260000  -2.54280000  -0.10320000
 H  -1.30120000  -1.89860000   0.90600000
 H   0.98580000  -0.58370000   1.89820000
 H  -0.63580000   0.03990000   2.08920000
 H   0.67730000   1.14080000   1.59820000
 H   2.25720000   0.63530000   0.17280000
 H   2.37810000   2.03420000  -0.47310000

